# 2-D radial CO2 injection simulation for saline aquifer property comparison 
ROCKS----1----*----2----*----3----*----4----*----5----*----6----*----7----*----8
STND1    2  2600.000       .25 4.935E-13  4.935-13  4.935-14       2.0    1000.0
       0.0                 2.0       0.0
    7           .457       .30        1.       .05
    7           .457       .00    5.1e-5      1.e7      .999
 
MULTI----1----*----2----*----3----*----4----*----5----*----6----*----7----*----8
    3    3    3    6
SELEC....2....3....4....5....6....7....8....9...10...11...12...13...14...15...16
    1                                            0    0    0    0    0    0    2
        .8   .8
     ..... IE(16) = 2 chooses CO2, = 3 is for methane.
SOLVR----1----*----2----*----3----*----4----*----5----*----6----*----7----*----8
5  Z1   O0    8.0e-1    1.0e-7
START----1----*----2----*----3----*----4----*----5----*----6----*----7----*----8
----*----1 MOP: 123456789*123456789*1234 ---*----5----*----6----*----7----*----8
PARAM----1-MOP* 123456789012345678901234----*----5----*----6----*----7----*----8
 8 19999    9999000000000001  04 000 5 0                                        
          1.57785E10       -1.  4.320E05A1 50           9.81
        1.
     1.E-5     1.E00
              146.e5                 .06              1.e-12                 50.
TIMES----1----*----2----*----3----*----4----*----5----*----6----*----7----*----8
    6    
 1.5768E09  3.1536E9  6.3072E9  9.4608E91.26144E10 1.5768E10
ELEME----1----*----2----*----3----*----4----*----5----*----6----*----7----*----8
A1  1              10.6283E+010.3142E+01          0.5000E+00          -.1000E+01
A2  1              10.6283E+010.0000E+00          0.5000E+00          -.3000E+01
A3  1              10.6283E+010.0000E+00          0.5000E+00          -.5000E+01
A4  1              10.6283E+010.0000E+00          0.5000E+00          -.7000E+01
A5  1              10.6283E+010.0000E+00          0.5000E+00          -.9000E+01
A6  1              10.6283E+010.0000E+00          0.5000E+00          -.1100E+02
A7  1              10.6283E+010.0000E+00          0.5000E+00          -.1300E+02
A8  1              10.6283E+010.0000E+00          0.5000E+00          -.1500E+02
A9  1              10.6283E+010.0000E+00          0.5000E+00          -.1700E+02
AA  1              10.6283E+010.0000E+00          0.5000E+00          -.1900E+02
AB  1              10.6283E+010.0000E+00          0.5000E+00          -.2100E+02
AC  1              10.6283E+010.0000E+00          0.5000E+00          -.2300E+02
AD  1              10.6283E+010.0000E+00          0.5000E+00          -.2500E+02
AE  1              10.6283E+010.0000E+00          0.5000E+00          -.2700E+02
AF  1              10.6283E+010.0000E+00          0.5000E+00          -.2900E+02
AG  1              10.6283E+010.0000E+00          0.5000E+00          -.3100E+02
AH  1              10.6283E+010.0000E+00          0.5000E+00          -.3300E+02
AI  1              10.6283E+010.0000E+00          0.5000E+00          -.3500E+02
AJ  1              10.6283E+010.0000E+00          0.5000E+00          -.3700E+02
AK  1              10.6283E+010.3142E+01          0.5000E+00          -.3900E+02
A1  2              10.2454E+020.1227E+02          0.1607E+01          -.1000E+01
A2  2              10.2454E+020.0000E+00          0.1607E+01          -.3000E+01
A3  2              10.2454E+020.0000E+00          0.1607E+01          -.5000E+01
A4  2              10.2454E+020.0000E+00          0.1607E+01          -.7000E+01
A5  2              10.2454E+020.0000E+00          0.1607E+01          -.9000E+01
A6  2              10.2454E+020.0000E+00          0.1607E+01          -.1100E+02
A7  2              10.2454E+020.0000E+00          0.1607E+01          -.1300E+02
A8  2              10.2454E+020.0000E+00          0.1607E+01          -.1500E+02
A9  2              10.2454E+020.0000E+00          0.1607E+01          -.1700E+02
AA  2              10.2454E+020.0000E+00          0.1607E+01          -.1900E+02
AB  2              10.2454E+020.0000E+00          0.1607E+01          -.2100E+02
AC  2              10.2454E+020.0000E+00          0.1607E+01          -.2300E+02
AD  2              10.2454E+020.0000E+00          0.1607E+01          -.2500E+02
AE  2              10.2454E+020.0000E+00          0.1607E+01          -.2700E+02
AF  2              10.2454E+020.0000E+00          0.1607E+01          -.2900E+02
AG  2              10.2454E+020.0000E+00          0.1607E+01          -.3100E+02
AH  2              10.2454E+020.0000E+00          0.1607E+01          -.3300E+02
AI  2              10.2454E+020.0000E+00          0.1607E+01          -.3500E+02
AJ  2              10.2454E+020.0000E+00          0.1607E+01          -.3700E+02
AK  2              10.2454E+020.1227E+02          0.1607E+01          -.3900E+02
A1  3              10.5475E+020.2737E+02          0.2953E+01          -.1000E+01
A2  3              10.5475E+020.0000E+00          0.2953E+01          -.3000E+01
A3  3              10.5475E+020.0000E+00          0.2953E+01          -.5000E+01
A4  3              10.5475E+020.0000E+00          0.2953E+01          -.7000E+01
A5  3              10.5475E+020.0000E+00          0.2953E+01          -.9000E+01
A6  3              10.5475E+020.0000E+00          0.2953E+01          -.1100E+02
A7  3              10.5475E+020.0000E+00          0.2953E+01          -.1300E+02
A8  3              10.5475E+020.0000E+00          0.2953E+01          -.1500E+02
A9  3              10.5475E+020.0000E+00          0.2953E+01          -.1700E+02
AA  3              10.5475E+020.0000E+00          0.2953E+01          -.1900E+02
AB  3              10.5475E+020.0000E+00          0.2953E+01          -.2100E+02
AC  3              10.5475E+020.0000E+00          0.2953E+01          -.2300E+02
AD  3              10.5475E+020.0000E+00          0.2953E+01          -.2500E+02
AE  3              10.5475E+020.0000E+00          0.2953E+01          -.2700E+02
AF  3              10.5475E+020.0000E+00          0.2953E+01          -.2900E+02
AG  3              10.5475E+020.0000E+00          0.2953E+01          -.3100E+02
AH  3              10.5475E+020.0000E+00          0.2953E+01          -.3300E+02
AI  3              10.5475E+020.0000E+00          0.2953E+01          -.3500E+02
AJ  3              10.5475E+020.0000E+00          0.2953E+01          -.3700E+02
AK  3              10.5475E+020.2737E+02          0.2953E+01          -.3900E+02
A1  4              10.1033E+030.5165E+02          0.4586E+01          -.1000E+01
A2  4              10.1033E+030.0000E+00          0.4586E+01          -.3000E+01
A3  4              10.1033E+030.0000E+00          0.4586E+01          -.5000E+01
A4  4              10.1033E+030.0000E+00          0.4586E+01          -.7000E+01
A5  4              10.1033E+030.0000E+00          0.4586E+01          -.9000E+01
A6  4              10.1033E+030.0000E+00          0.4586E+01          -.1100E+02
A7  4              10.1033E+030.0000E+00          0.4586E+01          -.1300E+02
A8  4              10.1033E+030.0000E+00          0.4586E+01          -.1500E+02
A9  4              10.1033E+030.0000E+00          0.4586E+01          -.1700E+02
AA  4              10.1033E+030.0000E+00          0.4586E+01          -.1900E+02
AB  4              10.1033E+030.0000E+00          0.4586E+01          -.2100E+02
AC  4              10.1033E+030.0000E+00          0.4586E+01          -.2300E+02
AD  4              10.1033E+030.0000E+00          0.4586E+01          -.2500E+02
AE  4              10.1033E+030.0000E+00          0.4586E+01          -.2700E+02
AF  4              10.1033E+030.0000E+00          0.4586E+01          -.2900E+02
AG  4              10.1033E+030.0000E+00          0.4586E+01          -.3100E+02
AH  4              10.1033E+030.0000E+00          0.4586E+01          -.3300E+02
AI  4              10.1033E+030.0000E+00          0.4586E+01          -.3500E+02
AJ  4              10.1033E+030.0000E+00          0.4586E+01          -.3700E+02
AK  4              10.1033E+030.5165E+02          0.4586E+01          -.3900E+02
A1  5              10.1798E+030.8990E+02          0.6571E+01          -.1000E+01
A2  5              10.1798E+030.0000E+00          0.6571E+01          -.3000E+01
A3  5              10.1798E+030.0000E+00          0.6571E+01          -.5000E+01
A4  5              10.1798E+030.0000E+00          0.6571E+01          -.7000E+01
A5  5              10.1798E+030.0000E+00          0.6571E+01          -.9000E+01
A6  5              10.1798E+030.0000E+00          0.6571E+01          -.1100E+02
A7  5              10.1798E+030.0000E+00          0.6571E+01          -.1300E+02
A8  5              10.1798E+030.0000E+00          0.6571E+01          -.1500E+02
A9  5              10.1798E+030.0000E+00          0.6571E+01          -.1700E+02
AA  5              10.1798E+030.0000E+00          0.6571E+01          -.1900E+02
AB  5              10.1798E+030.0000E+00          0.6571E+01          -.2100E+02
AC  5              10.1798E+030.0000E+00          0.6571E+01          -.2300E+02
AD  5              10.1798E+030.0000E+00          0.6571E+01          -.2500E+02
AE  5              10.1798E+030.0000E+00          0.6571E+01          -.2700E+02
AF  5              10.1798E+030.0000E+00          0.6571E+01          -.2900E+02
AG  5              10.1798E+030.0000E+00          0.6571E+01          -.3100E+02
AH  5              10.1798E+030.0000E+00          0.6571E+01          -.3300E+02
AI  5              10.1798E+030.0000E+00          0.6571E+01          -.3500E+02
AJ  5              10.1798E+030.0000E+00          0.6571E+01          -.3700E+02
AK  5              10.1798E+030.8990E+02          0.6571E+01          -.3900E+02
A1  6              10.2985E+030.1493E+03          0.8982E+01          -.1000E+01
A2  6              10.2985E+030.0000E+00          0.8982E+01          -.3000E+01
A3  6              10.2985E+030.0000E+00          0.8982E+01          -.5000E+01
A4  6              10.2985E+030.0000E+00          0.8982E+01          -.7000E+01
A5  6              10.2985E+030.0000E+00          0.8982E+01          -.9000E+01
A6  6              10.2985E+030.0000E+00          0.8982E+01          -.1100E+02
A7  6              10.2985E+030.0000E+00          0.8982E+01          -.1300E+02
A8  6              10.2985E+030.0000E+00          0.8982E+01          -.1500E+02
A9  6              10.2985E+030.0000E+00          0.8982E+01          -.1700E+02
AA  6              10.2985E+030.0000E+00          0.8982E+01          -.1900E+02
AB  6              10.2985E+030.0000E+00          0.8982E+01          -.2100E+02
AC  6              10.2985E+030.0000E+00          0.8982E+01          -.2300E+02
AD  6              10.2985E+030.0000E+00          0.8982E+01          -.2500E+02
AE  6              10.2985E+030.0000E+00          0.8982E+01          -.2700E+02
AF  6              10.2985E+030.0000E+00          0.8982E+01          -.2900E+02
AG  6              10.2985E+030.0000E+00          0.8982E+01          -.3100E+02
AH  6              10.2985E+030.0000E+00          0.8982E+01          -.3300E+02
AI  6              10.2985E+030.0000E+00          0.8982E+01          -.3500E+02
AJ  6              10.2985E+030.0000E+00          0.8982E+01          -.3700E+02
AK  6              10.2985E+030.1493E+03          0.8982E+01          -.3900E+02
A1  7              10.4809E+030.2404E+03          0.1191E+02          -.1000E+01
A2  7              10.4809E+030.0000E+00          0.1191E+02          -.3000E+01
A3  7              10.4809E+030.0000E+00          0.1191E+02          -.5000E+01
A4  7              10.4809E+030.0000E+00          0.1191E+02          -.7000E+01
A5  7              10.4809E+030.0000E+00          0.1191E+02          -.9000E+01
A6  7              10.4809E+030.0000E+00          0.1191E+02          -.1100E+02
A7  7              10.4809E+030.0000E+00          0.1191E+02          -.1300E+02
A8  7              10.4809E+030.0000E+00          0.1191E+02          -.1500E+02
A9  7              10.4809E+030.0000E+00          0.1191E+02          -.1700E+02
AA  7              10.4809E+030.0000E+00          0.1191E+02          -.1900E+02
AB  7              10.4809E+030.0000E+00          0.1191E+02          -.2100E+02
AC  7              10.4809E+030.0000E+00          0.1191E+02          -.2300E+02
AD  7              10.4809E+030.0000E+00          0.1191E+02          -.2500E+02
AE  7              10.4809E+030.0000E+00          0.1191E+02          -.2700E+02
AF  7              10.4809E+030.0000E+00          0.1191E+02          -.2900E+02
AG  7              10.4809E+030.0000E+00          0.1191E+02          -.3100E+02
AH  7              10.4809E+030.0000E+00          0.1191E+02          -.3300E+02
AI  7              10.4809E+030.0000E+00          0.1191E+02          -.3500E+02
AJ  7              10.4809E+030.0000E+00          0.1191E+02          -.3700E+02
AK  7              10.4809E+030.2404E+03          0.1191E+02          -.3900E+02
A1  8              10.7586E+030.3793E+03          0.1547E+02          -.1000E+01
A2  8              10.7586E+030.0000E+00          0.1547E+02          -.3000E+01
A3  8              10.7586E+030.0000E+00          0.1547E+02          -.5000E+01
A4  8              10.7586E+030.0000E+00          0.1547E+02          -.7000E+01
A5  8              10.7586E+030.0000E+00          0.1547E+02          -.9000E+01
A6  8              10.7586E+030.0000E+00          0.1547E+02          -.1100E+02
A7  8              10.7586E+030.0000E+00          0.1547E+02          -.1300E+02
A8  8              10.7586E+030.0000E+00          0.1547E+02          -.1500E+02
A9  8              10.7586E+030.0000E+00          0.1547E+02          -.1700E+02
AA  8              10.7586E+030.0000E+00          0.1547E+02          -.1900E+02
AB  8              10.7586E+030.0000E+00          0.1547E+02          -.2100E+02
AC  8              10.7586E+030.0000E+00          0.1547E+02          -.2300E+02
AD  8              10.7586E+030.0000E+00          0.1547E+02          -.2500E+02
AE  8              10.7586E+030.0000E+00          0.1547E+02          -.2700E+02
AF  8              10.7586E+030.0000E+00          0.1547E+02          -.2900E+02
AG  8              10.7586E+030.0000E+00          0.1547E+02          -.3100E+02
AH  8              10.7586E+030.0000E+00          0.1547E+02          -.3300E+02
AI  8              10.7586E+030.0000E+00          0.1547E+02          -.3500E+02
AJ  8              10.7586E+030.0000E+00          0.1547E+02          -.3700E+02
AK  8              10.7586E+030.3793E+03          0.1547E+02          -.3900E+02
A1  9              10.1179E+040.5895E+03          0.1979E+02          -.1000E+01
A2  9              10.1179E+040.0000E+00          0.1979E+02          -.3000E+01
A3  9              10.1179E+040.0000E+00          0.1979E+02          -.5000E+01
A4  9              10.1179E+040.0000E+00          0.1979E+02          -.7000E+01
A5  9              10.1179E+040.0000E+00          0.1979E+02          -.9000E+01
A6  9              10.1179E+040.0000E+00          0.1979E+02          -.1100E+02
A7  9              10.1179E+040.0000E+00          0.1979E+02          -.1300E+02
A8  9              10.1179E+040.0000E+00          0.1979E+02          -.1500E+02
A9  9              10.1179E+040.0000E+00          0.1979E+02          -.1700E+02
AA  9              10.1179E+040.0000E+00          0.1979E+02          -.1900E+02
AB  9              10.1179E+040.0000E+00          0.1979E+02          -.2100E+02
AC  9              10.1179E+040.0000E+00          0.1979E+02          -.2300E+02
AD  9              10.1179E+040.0000E+00          0.1979E+02          -.2500E+02
AE  9              10.1179E+040.0000E+00          0.1979E+02          -.2700E+02
AF  9              10.1179E+040.0000E+00          0.1979E+02          -.2900E+02
AG  9              10.1179E+040.0000E+00          0.1979E+02          -.3100E+02
AH  9              10.1179E+040.0000E+00          0.1979E+02          -.3300E+02
AI  9              10.1179E+040.0000E+00          0.1979E+02          -.3500E+02
AJ  9              10.1179E+040.0000E+00          0.1979E+02          -.3700E+02
AK  9              10.1179E+040.5895E+03          0.1979E+02          -.3900E+02
A1 10              10.1812E+040.9060E+03          0.2504E+02          -.1000E+01
A2 10              10.1812E+040.0000E+00          0.2504E+02          -.3000E+01
A3 10              10.1812E+040.0000E+00          0.2504E+02          -.5000E+01
A4 10              10.1812E+040.0000E+00          0.2504E+02          -.7000E+01
A5 10              10.1812E+040.0000E+00          0.2504E+02          -.9000E+01
A6 10              10.1812E+040.0000E+00          0.2504E+02          -.1100E+02
A7 10              10.1812E+040.0000E+00          0.2504E+02          -.1300E+02
A8 10              10.1812E+040.0000E+00          0.2504E+02          -.1500E+02
A9 10              10.1812E+040.0000E+00          0.2504E+02          -.1700E+02
AA 10              10.1812E+040.0000E+00          0.2504E+02          -.1900E+02
AB 10              10.1812E+040.0000E+00          0.2504E+02          -.2100E+02
AC 10              10.1812E+040.0000E+00          0.2504E+02          -.2300E+02
AD 10              10.1812E+040.0000E+00          0.2504E+02          -.2500E+02
AE 10              10.1812E+040.0000E+00          0.2504E+02          -.2700E+02
AF 10              10.1812E+040.0000E+00          0.2504E+02          -.2900E+02
AG 10              10.1812E+040.0000E+00          0.2504E+02          -.3100E+02
AH 10              10.1812E+040.0000E+00          0.2504E+02          -.3300E+02
AI 10              10.1812E+040.0000E+00          0.2504E+02          -.3500E+02
AJ 10              10.1812E+040.0000E+00          0.2504E+02          -.3700E+02
AK 10              10.1812E+040.9060E+03          0.2504E+02          -.3900E+02
A1 11              10.2762E+040.1381E+04          0.3142E+02          -.1000E+01
A2 11              10.2762E+040.0000E+00          0.3142E+02          -.3000E+01
A3 11              10.2762E+040.0000E+00          0.3142E+02          -.5000E+01
A4 11              10.2762E+040.0000E+00          0.3142E+02          -.7000E+01
A5 11              10.2762E+040.0000E+00          0.3142E+02          -.9000E+01
A6 11              10.2762E+040.0000E+00          0.3142E+02          -.1100E+02
A7 11              10.2762E+040.0000E+00          0.3142E+02          -.1300E+02
A8 11              10.2762E+040.0000E+00          0.3142E+02          -.1500E+02
A9 11              10.2762E+040.0000E+00          0.3142E+02          -.1700E+02
AA 11              10.2762E+040.0000E+00          0.3142E+02          -.1900E+02
AB 11              10.2762E+040.0000E+00          0.3142E+02          -.2100E+02
AC 11              10.2762E+040.0000E+00          0.3142E+02          -.2300E+02
AD 11              10.2762E+040.0000E+00          0.3142E+02          -.2500E+02
AE 11              10.2762E+040.0000E+00          0.3142E+02          -.2700E+02
AF 11              10.2762E+040.0000E+00          0.3142E+02          -.2900E+02
AG 11              10.2762E+040.0000E+00          0.3142E+02          -.3100E+02
AH 11              10.2762E+040.0000E+00          0.3142E+02          -.3300E+02
AI 11              10.2762E+040.0000E+00          0.3142E+02          -.3500E+02
AJ 11              10.2762E+040.0000E+00          0.3142E+02          -.3700E+02
AK 11              10.2762E+040.1381E+04          0.3142E+02          -.3900E+02
A1 12              10.4182E+040.2091E+04          0.3916E+02          -.1000E+01
A2 12              10.4182E+040.0000E+00          0.3916E+02          -.3000E+01
A3 12              10.4182E+040.0000E+00          0.3916E+02          -.5000E+01
A4 12              10.4182E+040.0000E+00          0.3916E+02          -.7000E+01
A5 12              10.4182E+040.0000E+00          0.3916E+02          -.9000E+01
A6 12              10.4182E+040.0000E+00          0.3916E+02          -.1100E+02
A7 12              10.4182E+040.0000E+00          0.3916E+02          -.1300E+02
A8 12              10.4182E+040.0000E+00          0.3916E+02          -.1500E+02
A9 12              10.4182E+040.0000E+00          0.3916E+02          -.1700E+02
AA 12              10.4182E+040.0000E+00          0.3916E+02          -.1900E+02
AB 12              10.4182E+040.0000E+00          0.3916E+02          -.2100E+02
AC 12              10.4182E+040.0000E+00          0.3916E+02          -.2300E+02
AD 12              10.4182E+040.0000E+00          0.3916E+02          -.2500E+02
AE 12              10.4182E+040.0000E+00          0.3916E+02          -.2700E+02
AF 12              10.4182E+040.0000E+00          0.3916E+02          -.2900E+02
AG 12              10.4182E+040.0000E+00          0.3916E+02          -.3100E+02
AH 12              10.4182E+040.0000E+00          0.3916E+02          -.3300E+02
AI 12              10.4182E+040.0000E+00          0.3916E+02          -.3500E+02
AJ 12              10.4182E+040.0000E+00          0.3916E+02          -.3700E+02
AK 12              10.4182E+040.2091E+04          0.3916E+02          -.3900E+02
A1 13              10.6300E+040.3150E+04          0.4857E+02          -.1000E+01
A2 13              10.6300E+040.0000E+00          0.4857E+02          -.3000E+01
A3 13              10.6300E+040.0000E+00          0.4857E+02          -.5000E+01
A4 13              10.6300E+040.0000E+00          0.4857E+02          -.7000E+01
A5 13              10.6300E+040.0000E+00          0.4857E+02          -.9000E+01
A6 13              10.6300E+040.0000E+00          0.4857E+02          -.1100E+02
A7 13              10.6300E+040.0000E+00          0.4857E+02          -.1300E+02
A8 13              10.6300E+040.0000E+00          0.4857E+02          -.1500E+02
A9 13              10.6300E+040.0000E+00          0.4857E+02          -.1700E+02
AA 13              10.6300E+040.0000E+00          0.4857E+02          -.1900E+02
AB 13              10.6300E+040.0000E+00          0.4857E+02          -.2100E+02
AC 13              10.6300E+040.0000E+00          0.4857E+02          -.2300E+02
AD 13              10.6300E+040.0000E+00          0.4857E+02          -.2500E+02
AE 13              10.6300E+040.0000E+00          0.4857E+02          -.2700E+02
AF 13              10.6300E+040.0000E+00          0.4857E+02          -.2900E+02
AG 13              10.6300E+040.0000E+00          0.4857E+02          -.3100E+02
AH 13              10.6300E+040.0000E+00          0.4857E+02          -.3300E+02
AI 13              10.6300E+040.0000E+00          0.4857E+02          -.3500E+02
AJ 13              10.6300E+040.0000E+00          0.4857E+02          -.3700E+02
AK 13              10.6300E+040.3150E+04          0.4857E+02          -.3900E+02
A1 14              10.9453E+040.4727E+04          0.6000E+02          -.1000E+01
A2 14              10.9453E+040.0000E+00          0.6000E+02          -.3000E+01
A3 14              10.9453E+040.0000E+00          0.6000E+02          -.5000E+01
A4 14              10.9453E+040.0000E+00          0.6000E+02          -.7000E+01
A5 14              10.9453E+040.0000E+00          0.6000E+02          -.9000E+01
A6 14              10.9453E+040.0000E+00          0.6000E+02          -.1100E+02
A7 14              10.9453E+040.0000E+00          0.6000E+02          -.1300E+02
A8 14              10.9453E+040.0000E+00          0.6000E+02          -.1500E+02
A9 14              10.9453E+040.0000E+00          0.6000E+02          -.1700E+02
AA 14              10.9453E+040.0000E+00          0.6000E+02          -.1900E+02
AB 14              10.9453E+040.0000E+00          0.6000E+02          -.2100E+02
AC 14              10.9453E+040.0000E+00          0.6000E+02          -.2300E+02
AD 14              10.9453E+040.0000E+00          0.6000E+02          -.2500E+02
AE 14              10.9453E+040.0000E+00          0.6000E+02          -.2700E+02
AF 14              10.9453E+040.0000E+00          0.6000E+02          -.2900E+02
AG 14              10.9453E+040.0000E+00          0.6000E+02          -.3100E+02
AH 14              10.9453E+040.0000E+00          0.6000E+02          -.3300E+02
AI 14              10.9453E+040.0000E+00          0.6000E+02          -.3500E+02
AJ 14              10.9453E+040.0000E+00          0.6000E+02          -.3700E+02
AK 14              10.9453E+040.4727E+04          0.6000E+02          -.3900E+02
A1 15              10.1414E+050.7070E+04          0.7388E+02          -.1000E+01
A2 15              10.1414E+050.0000E+00          0.7388E+02          -.3000E+01
A3 15              10.1414E+050.0000E+00          0.7388E+02          -.5000E+01
A4 15              10.1414E+050.0000E+00          0.7388E+02          -.7000E+01
A5 15              10.1414E+050.0000E+00          0.7388E+02          -.9000E+01
A6 15              10.1414E+050.0000E+00          0.7388E+02          -.1100E+02
A7 15              10.1414E+050.0000E+00          0.7388E+02          -.1300E+02
A8 15              10.1414E+050.0000E+00          0.7388E+02          -.1500E+02
A9 15              10.1414E+050.0000E+00          0.7388E+02          -.1700E+02
AA 15              10.1414E+050.0000E+00          0.7388E+02          -.1900E+02
AB 15              10.1414E+050.0000E+00          0.7388E+02          -.2100E+02
AC 15              10.1414E+050.0000E+00          0.7388E+02          -.2300E+02
AD 15              10.1414E+050.0000E+00          0.7388E+02          -.2500E+02
AE 15              10.1414E+050.0000E+00          0.7388E+02          -.2700E+02
AF 15              10.1414E+050.0000E+00          0.7388E+02          -.2900E+02
AG 15              10.1414E+050.0000E+00          0.7388E+02          -.3100E+02
AH 15              10.1414E+050.0000E+00          0.7388E+02          -.3300E+02
AI 15              10.1414E+050.0000E+00          0.7388E+02          -.3500E+02
AJ 15              10.1414E+050.0000E+00          0.7388E+02          -.3700E+02
AK 15              10.1414E+050.7070E+04          0.7388E+02          -.3900E+02
A1 16              10.2110E+050.1055E+05          0.9075E+02          -.1000E+01
A2 16              10.2110E+050.0000E+00          0.9075E+02          -.3000E+01
A3 16              10.2110E+050.0000E+00          0.9075E+02          -.5000E+01
A4 16              10.2110E+050.0000E+00          0.9075E+02          -.7000E+01
A5 16              10.2110E+050.0000E+00          0.9075E+02          -.9000E+01
A6 16              10.2110E+050.0000E+00          0.9075E+02          -.1100E+02
A7 16              10.2110E+050.0000E+00          0.9075E+02          -.1300E+02
A8 16              10.2110E+050.0000E+00          0.9075E+02          -.1500E+02
A9 16              10.2110E+050.0000E+00          0.9075E+02          -.1700E+02
AA 16              10.2110E+050.0000E+00          0.9075E+02          -.1900E+02
AB 16              10.2110E+050.0000E+00          0.9075E+02          -.2100E+02
AC 16              10.2110E+050.0000E+00          0.9075E+02          -.2300E+02
AD 16              10.2110E+050.0000E+00          0.9075E+02          -.2500E+02
AE 16              10.2110E+050.0000E+00          0.9075E+02          -.2700E+02
AF 16              10.2110E+050.0000E+00          0.9075E+02          -.2900E+02
AG 16              10.2110E+050.0000E+00          0.9075E+02          -.3100E+02
AH 16              10.2110E+050.0000E+00          0.9075E+02          -.3300E+02
AI 16              10.2110E+050.0000E+00          0.9075E+02          -.3500E+02
AJ 16              10.2110E+050.0000E+00          0.9075E+02          -.3700E+02
AK 16              10.2110E+050.1055E+05          0.9075E+02          -.3900E+02
A1 17              10.2758E+050.1379E+05          0.1100E+03          -.1000E+01
A2 17              10.2758E+050.0000E+00          0.1100E+03          -.3000E+01
A3 17              10.2758E+050.0000E+00          0.1100E+03          -.5000E+01
A4 17              10.2758E+050.0000E+00          0.1100E+03          -.7000E+01
A5 17              10.2758E+050.0000E+00          0.1100E+03          -.9000E+01
A6 17              10.2758E+050.0000E+00          0.1100E+03          -.1100E+02
A7 17              10.2758E+050.0000E+00          0.1100E+03          -.1300E+02
A8 17              10.2758E+050.0000E+00          0.1100E+03          -.1500E+02
A9 17              10.2758E+050.0000E+00          0.1100E+03          -.1700E+02
AA 17              10.2758E+050.0000E+00          0.1100E+03          -.1900E+02
AB 17              10.2758E+050.0000E+00          0.1100E+03          -.2100E+02
AC 17              10.2758E+050.0000E+00          0.1100E+03          -.2300E+02
AD 17              10.2758E+050.0000E+00          0.1100E+03          -.2500E+02
AE 17              10.2758E+050.0000E+00          0.1100E+03          -.2700E+02
AF 17              10.2758E+050.0000E+00          0.1100E+03          -.2900E+02
AG 17              10.2758E+050.0000E+00          0.1100E+03          -.3100E+02
AH 17              10.2758E+050.0000E+00          0.1100E+03          -.3300E+02
AI 17              10.2758E+050.0000E+00          0.1100E+03          -.3500E+02
AJ 17              10.2758E+050.0000E+00          0.1100E+03          -.3700E+02
AK 17              10.2758E+050.1379E+05          0.1100E+03          -.3900E+02
A1 18              10.3536E+050.1768E+05          0.1307E+03          -.1000E+01
A2 18              10.3536E+050.0000E+00          0.1307E+03          -.3000E+01
A3 18              10.3536E+050.0000E+00          0.1307E+03          -.5000E+01
A4 18              10.3536E+050.0000E+00          0.1307E+03          -.7000E+01
A5 18              10.3536E+050.0000E+00          0.1307E+03          -.9000E+01
A6 18              10.3536E+050.0000E+00          0.1307E+03          -.1100E+02
A7 18              10.3536E+050.0000E+00          0.1307E+03          -.1300E+02
A8 18              10.3536E+050.0000E+00          0.1307E+03          -.1500E+02
A9 18              10.3536E+050.0000E+00          0.1307E+03          -.1700E+02
AA 18              10.3536E+050.0000E+00          0.1307E+03          -.1900E+02